**----------------------------------
**INPUT FILE GENERATED BY GenerateInput.py
**----------------------------------
*HEADING
Sample Heading
*PREPRINT, ECHO=NO, MODEL=NO, HISTORY=NO, CONTACT=NO
**----------------------------------
** PART
**----------------------------------
*PART, NAME = PART-1
**----------------------------------
** NODES
**----------------------------------
*NODE, NSET=ALLNODES
  101, 0.0, 0.0, 0.0
  102, 1.0, 0.0, 0.0
  103, 2.0, 0.0, 0.0
  104, 0.5, 0.865999996662, 0.0
  105, 1.5, 0.865999996662, 0.0
**----------------------------------
** NODE SETS
**----------------------------------
*NSET, NSET=MYNODES
101,102,103,104,105,
**----------------------------------
** ELEMENTS
**----------------------------------
*ELEMENT, TYPE=T2D2, ELSET=T2D2_ELEMENTS
  11, 101, 102, 
  12, 102, 103, 
  13, 101, 104, 
  14, 102, 104, 
  15, 102, 105, 
  16, 103, 105, 
  17, 104, 105, 
**----------------------------------
** ELEMENT SETS
**----------------------------------
*ELSET, ELSET=MYSET
  11, 12, 13, 14, 15, 16, 17,
**----------------------------------
** ELEMENT SURFACES
**----------------------------------
*SOLID SECTION, ELSET = ALL_ELEMENTS, MATERIAL = STEEL
*END PART
**----------------------------------
** MATERIALS
**----------------------------------
** <Elastic instance: 1 samples>
*MATERIAL, NAME=STEEL
*ELASTIC
  2e+11, 0.3
**----------------------------------
** HISTORY DATA
**----------------------------------
*STEP, PERTURBATION
10kN central load
*STATIC
*BOUNDARY
101, ENCASTRE
103, 2
*CLOAD
102, 2, -10.E3
*NODE print
U,
RF,
*EL PRINT
S,
*END STEP
