*Heading
** Job name: 800 Model name: 800
** Generated by: Abaqus/CAE 6.14-5
*Preprint, echo=NO, model=NO, history=NO, contact=NO
**
** PARTS
**
*Part, name=Boden
*Node
      1,       -10.75,         -15.,           0.
      2,          60.,         -15.,           0.
      3,  -11.2132225,  -13.0705404,           0.
      4,  -13.0705404,  -11.2132225,           0.
      5,         -15.,       -10.75,           0.
      6,         -15.,          60.,           0.
      7,          60.,          60.,           0.
      8,        -9.75,         -15.,           0.
      9,  -8.64173698,         -15.,           0.
     10,  -7.41349125,         -15.,           0.
     11,  -6.05227137,         -15.,           0.
     12,  -4.54368258,         -15.,           0.
     13,  -2.87176991,         -15.,           0.
     14,  -1.01885128,         -15.,           0.
     15,   1.03466928,         -15.,           0.
     16,   3.31050968,         -15.,           0.
     17,    5.8327384,         -15.,           0.
     18,   8.62803078,         -15.,           0.
     19,   11.7259493,         -15.,           0.
     20,   15.1592569,         -15.,           0.
** ... 602 like lines cut
*Element, type=SC8R
  1,  73,  71,  31,  30, 384, 382, 342, 341
  2,  27, 224, 223,  26, 338, 535, 534, 337
  3,  15,  79,  78,  14, 326, 390, 389, 325
  4,  33,   4,  85,  88, 344, 315, 396, 399
  5,  81,  82, 110, 108, 392, 393, 421, 419
  6,   8, 296,  28,   1, 319, 607, 339, 312
  7, 296,  87,  29,  28, 607, 398, 340, 339
  8,  73,  90,  89,  71, 384, 401, 400, 382
  9,   9,  93, 296,   8, 320, 404, 607, 319
 10, 122,  94, 298,  96, 433, 405, 609, 407
 11,  12,  76,  75,  11, 323, 387, 386, 322
 12,  13,  77,  76,  12, 324, 388, 387, 323
 13,  14,  78,  77,  13, 325, 389, 388, 324
 14,  16,  80,  79,  15, 327, 391, 390, 326
 15,  17,  81,  80,  16, 328, 392, 391, 327
 16,  17,  18,  82,  81, 328, 329, 393, 392
 17,  19,  83,  82,  18, 330, 394, 393, 329
 18,  20,  84,  83,  19, 331, 395, 394, 330
 19,  21, 181,  84,  20, 332, 492, 395, 331
 20, 134, 136, 179, 158, 445, 447, 490, 469
** ... 255 like lines cut
*Elset, elset=_Oben_S2, internal, generate
   1,  275,    1
*Surface, type=ELEMENT, name=Oben
_Oben_S2, S2
*Elset, elset=_Unten_S1, internal, generate
   1,  275,    1
*Surface, type=ELEMENT, name=Unten
_Unten_S1, S1
** Region: (Deckschicht-1: Generated From Layup)
*Elset, elset=Deckschicht-1, generate
   1,  275,    1
** Section: Deckschicht-1
*Shell Section, elset=Deckschicht-1, composite, stack direction=3, layup=Deckschicht
0.125, 3, CFK, 0., 1
0.125, 3, CFK, 90., 2
0.125, 3, CFK, 0., 3
0.125, 3, CFK, 90., 4
0.125, 3, CFK, 90., 5
0.125, 3, CFK, 0., 6
0.125, 3, CFK, 90., 7
0.125, 3, CFK, 0., 8
*End Part
**  
*Part, name=Deckel
*Node
      1,       -10.75,         -15.,           0.
      2,          60.,         -15.,           0.
      3,  -11.2132225,  -13.0705404,           0.
      4,  -13.0705404,  -11.2132225,           0.
      5,         -15.,       -10.75,           0.
      6,         -15.,          60.,           0.
      7,          60.,          60.,           0.
      8,        -9.75,         -15.,           0.
      9,  -8.64173698,         -15.,           0.
     10,  -7.41349125,         -15.,           0.
     11,  -6.05227137,         -15.,           0.
     12,  -4.54368258,         -15.,           0.
     13,  -2.87176991,         -15.,           0.
     14,  -1.01885128,         -15.,           0.
     15,   1.03466928,         -15.,           0.
     16,   3.31050968,         -15.,           0.
     17,    5.8327384,         -15.,           0.
     18,   8.62803078,         -15.,           0.
     19,   11.7259493,         -15.,           0.
     20,   15.1592569,         -15.,           0.
** ... 602 like lines cut
*Element, type=SC8R
  1,  73,  71,  31,  30, 384, 382, 342, 341
  2,  27, 224, 223,  26, 338, 535, 534, 337
  3,  15,  79,  78,  14, 326, 390, 389, 325
  4,  33,   4,  85,  88, 344, 315, 396, 399
  5,  81,  82, 110, 108, 392, 393, 421, 419
  6,   8, 296,  28,   1, 319, 607, 339, 312
  7, 296,  87,  29,  28, 607, 398, 340, 339
  8,  73,  90,  89,  71, 384, 401, 400, 382
  9,   9,  93, 296,   8, 320, 404, 607, 319
 10, 122,  94, 298,  96, 433, 405, 609, 407
 11,  12,  76,  75,  11, 323, 387, 386, 322
 12,  13,  77,  76,  12, 324, 388, 387, 323
 13,  14,  78,  77,  13, 325, 389, 388, 324
 14,  16,  80,  79,  15, 327, 391, 390, 326
 15,  17,  81,  80,  16, 328, 392, 391, 327
 16,  17,  18,  82,  81, 328, 329, 393, 392
 17,  19,  83,  82,  18, 330, 394, 393, 329
 18,  20,  84,  83,  19, 331, 395, 394, 330
 19,  21, 181,  84,  20, 332, 492, 395, 331
 20, 134, 136, 179, 158, 445, 447, 490, 469
** ... 255 like lines cut
*Elset, elset=_Oben_S2, internal, generate
   1,  275,    1
*Surface, type=ELEMENT, name=Oben
_Oben_S2, S2
*Elset, elset=_Unten_S1, internal, generate
   1,  275,    1
*Surface, type=ELEMENT, name=Unten
_Unten_S1, S1
** Region: (Deckschicht-1: Generated From Layup)
*Elset, elset=Deckschicht-1, generate
   1,  275,    1
** Section: Deckschicht-1
*Shell Section, elset=Deckschicht-1, composite, stack direction=3, layup=Deckschicht
0.125, 3, CFK, 0., 1
0.125, 3, CFK, 90., 2
0.125, 3, CFK, 0., 3
0.125, 3, CFK, 90., 4
0.125, 3, CFK, 90., 5
0.125, 3, CFK, 0., 6
0.125, 3, CFK, 90., 7
0.125, 3, CFK, 0., 8
*End Part
**  
*Part, name=Hantel
*Node
      1,           0.,          10.,         4.25
      2,           0.,          12.,         4.25
      3,           0.,          14.,         4.25
      4,           0.,          16.,         4.25
      5,           0.,          18.,         4.25
      6,           0.,          20.,         4.25
      7,           0.,          22.,         4.25
      8,           0.,          24.,         4.25
      9,           0.,          26.,         4.25
     10,           0.,          28.,         4.25
     11,           0.,          30.,         4.25
     12,   1.31332219,          10.,   4.04199028
     13,   1.31332219,          12.,   4.04199028
     14,   1.31332219,          14.,   4.04199028
     15,   1.31332219,          16.,   4.04199028
     16,   1.31332219,          18.,   4.04199028
     17,   1.31332219,          20.,   4.04199028
     18,   1.31332219,          22.,   4.04199028
     19,   1.31332219,          24.,   4.04199028
     20,   1.31332219,          26.,   4.04199028
** ... 902 like lines cut
*Element, type=C3D20R
  1,  67,  68,  79,  78,   1,   2,  13,  12, 268, 267, 266, 265, 269, 270, 271,
     272, 274, 273, 275, 276
  2,  68,  69,  80,  79,   2,   3,  14,  13, 279, 278, 277, 267, 280, 281, 282,
     270, 273, 283, 284, 275
  3,  69,  70,  81,  80,   3,   4,  15,  14, 287, 286, 285, 278, 288, 289, 290,
     281, 283, 291, 292, 284
  4,  70,  71,  82,  81,   4,   5,  16,  15, 295, 294, 293, 286, 296, 297, 298,
     289, 291, 299, 300, 292
  5,  71,  72,  83,  82,   5,   6,  17,  16, 303, 302, 301, 294, 304, 305, 306,
     297, 299, 307, 308, 300
  6,  72,  73,  84,  83,   6,   7,  18,  17, 311, 310, 309, 302, 312, 313, 314,
     305, 307, 315, 316, 308
  7,  73,  74,  85,  84,   7,   8,  19,  18, 319, 318, 317, 310, 320, 321, 322,
     313, 315, 323, 324, 316
  8,  74,  75,  86,  85,   8,   9,  20,  19, 327, 326, 325, 318, 328, 329, 330,
     321, 323, 331, 332, 324
  9,  75,  76,  87,  86,   9,  10,  21,  20, 335, 334, 333, 326, 336, 337, 338,
     329, 331, 339, 340, 332
 10,  76,  77,  88,  87,  10,  11,  22,  21, 343, 342, 341, 334, 344, 345, 346,
     337, 339, 347, 348, 340
** ... 280 like lines cut
*Nset, nset=_PickedSet3, internal, generate
   1,  922,    1
*Elset, elset=_PickedSet3, internal, generate
   1,  150,    1
*Elset, elset=_Alles_S1, internal, generate
 101,  150,    1
*Elset, elset=_Alles_S6, internal, generate
   1,  141,   10
*Elset, elset=_Alles_S2, internal, generate
  1,  50,   1
*Elset, elset=_Alles_S4, internal, generate
  10,  150,   10
*Elset, elset=_Alles_S3, internal
   1,   2,   3,   4,   5,   6,   7,   8,   9,  10,  51,  52,  53,  54,  55,  56
  57,  58,  59,  60, 101, 102, 103, 104, 105, 106, 107, 108, 109, 110
*Elset, elset=_Alles_S5, internal
  41,  42,  43,  44,  45,  46,  47,  48,  49,  50,  91,  92,  93,  94,  95,  96
  97,  98,  99, 100, 141, 142, 143, 144, 145, 146, 147, 148, 149, 150
*Surface, type=ELEMENT, name=Alles
_Alles_S1, S1
_Alles_S6, S6
_Alles_S2, S2
_Alles_S4, S4
_Alles_S3, S3
_Alles_S5, S5
** Section: HarzSection
*Solid Section, elset=_PickedSet3, material=Harz
,
*End Part
**  
*Part, name=Insert
*Node
      1,           0.,          20.,         4.25
      2,           0.,          20.,          15.
      3,          15.,          20.,           0.
      4,         4.25,          20.,           0.
      5,           0.,          18.,          15.
      6,          15.,          18.,           0.
      7,         4.25,          18.,           0.
      8,           0.,          18.,         4.25
      9,           0.,          18.,           0.
     10,           0.,          50.,           0.
     11,         4.25,          50.,           0.
     12,           0.,          50.,         4.25
     13,           0.,          20.,        9.625
     14,   4.63525486,          20.,   14.2658482
     15,   8.81677914,          20.,   12.1352549
     16,   12.1352549,          20.,   8.81677914
     17,   14.2658482,          20.,   4.63525486
     18,        9.625,          20.,           0.
     19,   4.04199028,          20.,   1.31332219
     20,   3.43832231,          20.,   2.49808741
** ... 568 like lines cut
*Element, type=C3D20R
 1,  34,  80, 133,  72,   1,  13,  64,  22, 175, 174, 173, 172, 176, 177, 178,
    179, 181, 180, 182, 183
 2,  80,  36,  76, 133,  13,   2,  14,  64, 186, 185, 184, 174, 187, 188, 189,
    177, 180, 190, 191, 182
 3,  72, 133, 134,  73,  22,  64,  65,  21, 173, 194, 193, 192, 178, 195, 196,
    197, 183, 182, 198, 199
 4, 133,  76,  77, 134,  64,  14,  15,  65, 184, 201, 200, 194, 189, 202, 203,
    195, 182, 191, 204, 198
 5,  73, 134, 135,  74,  21,  65,  66,  20, 193, 207, 206, 205, 196, 208, 209,
    210, 199, 198, 211, 212
 6, 134,  77,  78, 135,  65,  15,  16,  66, 200, 214, 213, 207, 203, 215, 216,
    208, 198, 204, 217, 211
 7,  74, 135, 136,  75,  20,  66,  67,  19, 206, 220, 219, 218, 209, 221, 222,
    223, 212, 211, 224, 225
 8, 135,  78,  79, 136,  66,  16,  17,  67, 213, 227, 226, 220, 216, 228, 229,
    221, 211, 217, 230, 224
 9,  75, 136,  81,  33,  19,  67,  18,   4, 219, 233, 232, 231, 222, 234, 235,
    236, 225, 224, 237, 238
10, 136,  79,  35,  81,  67,  17,   3,  18, 226, 240, 239, 233, 229, 241, 242,
    234, 224, 230, 243, 237
** ... 164 like lines cut
*Node
    589,           0.,          60.,           0.
*Nset, nset=Insert-RefPt_, internal
589, 
*Nset, nset=_PickedSet5, internal, generate
   1,  588,    1
*Elset, elset=_PickedSet5, internal, generate
  1,  92,   1
*Nset, nset=Referenzpunkt
 589,
*Elset, elset=_Platte_S1, internal, generate
 11,  29,   1
*Elset, elset=_Platte_S2, internal, generate
  1,  10,   1
*Elset, elset=_Platte_S4, internal, generate
  2,  20,   2
*Surface, type=ELEMENT, name=Platte
_Platte_S1, S1
_Platte_S2, S2
_Platte_S4, S4
*Elset, elset=_Stiel_S3, internal
 39, 42, 46, 48, 51, 55, 57, 60, 64, 66, 69, 73, 75, 78, 82, 84
 87, 91
*Elset, elset=_Stiel_S5, internal
 43, 47, 52, 56, 61, 65, 70, 74, 79, 83, 88, 92
*Surface, type=ELEMENT, name=Stiel
_Stiel_S3, S3
_Stiel_S5, S5
** Section: StahlSection
*Solid Section, elset=_PickedSet5, material=Stahl
,
*End Part
**  
*Part, name=Niederhalter
*Node
      1,           5.,       -16.25,           0.
      2,         17.5,       -16.25,           0.
      3,    4.2305212,  -6.47284603,           0.
      4,   1.94103229,   3.06356215,           0.
      5,  -1.81209219,   12.1244059,           0.
      6,  -6.93643808,    20.486578,           0.
      7,  -13.3058262,   27.9441738,           0.
      8,   -20.763422,   34.3135605,           0.
      9,  -29.1255932,   39.4379082,           0.
     10,  -38.1864395,   43.1910324,           0.
     11,   -47.722847,   45.4805222,           0.
     12,        -57.5,        46.25,           0.
     13,        -57.5,        58.75,           0.
     14,         17.5,        58.75,           0.
     15,          2.5,        58.75,           0.
     16,        -12.5,        58.75,           0.
     17,        -27.5,        58.75,           0.
     18,        -42.5,        58.75,           0.
     19,         17.5,        -1.25,           0.
     20,         17.5,        13.75,           0.
** ... 185 like lines cut
*Element, type=C3D20R
 1,  19,   3,   1,   2,  52,  36,  34,  35,  70,  69,  68,  67,  71,  72,  73,
     74,  76,  75,  77,  78
 2,  27,  31,  20,  21,  60,  64,  53,  54,  82,  81,  80,  79,  83,  84,  85,
     86,  88,  87,  89,  90
 3,   7,   6,  24,  25,  40,  39,  57,  58,  94,  93,  92,  91,  95,  96,  97,
     98, 100,  99, 101, 102
 4,  15,  16,  30,  32,  48,  49,  63,  65, 106, 105, 104, 103, 107, 108, 109,
    110, 112, 111, 113, 114
 5,  30,  29,  28,  26,  63,  62,  61,  59, 118, 117, 116, 115, 119, 120, 121,
    122, 113, 123, 124, 125
 6,  10,  28,  18,  11,  43,  61,  51,  44, 129, 128, 127, 126, 130, 131, 132,
    133, 134, 124, 135, 136
 7,  12,  11,  18,  13,  45,  44,  51,  46, 139, 127, 138, 137, 140, 132, 141,
    142, 143, 136, 135, 144
 8,   3,  19,  20,   4,  36,  52,  53,  37,  70, 147, 146, 145,  71, 148, 149,
    150,  75,  76,  89, 151
 9,  15,  32,  22,  14,  48,  65,  55,  47, 103, 154, 153, 152, 110, 155, 156,
    157, 112, 114, 158, 159
10,   8,   7,  25,  23,  41,  40,  58,  56, 162,  91, 161, 160, 163,  98, 164,
    165, 166, 100, 102, 167
** ... 22 like lines cut
*Nset, nset=_PickedSet3, internal, generate
   1,  205,    1
*Elset, elset=_PickedSet3, internal, generate
  1,  21,   1
*Elset, elset=_Unten_S4, internal
  1,  8, 11, 14, 17
*Elset, elset=_Unten_S3, internal
  3,  4,  7, 10, 13
*Elset, elset=_Unten_S6, internal
  1,  6,  7,  8,  9, 12
*Elset, elset=_Unten_S5, internal
  1,  2,  7,  9, 15, 18
*Elset, elset=_Unten_S1, internal, generate
  1,  21,   1
*Surface, type=ELEMENT, name=Unten
_Unten_S4, S4
_Unten_S3, S3
_Unten_S6, S6
_Unten_S5, S5
_Unten_S1, S1
** Section: StahlSection
*Solid Section, elset=_PickedSet3, material=Stahl
,
*End Part
**  
*Part, name=Schaum
*Node
      1,         -7.5,          -5.,           0.
      2,         -7.5,          -5.,          20.
      3,        -22.5,          10.,          20.
      4,        -22.5,          10.,           0.
      5,        -22.5,          70.,           0.
      6,         52.5,          70.,           0.
      7,         52.5,          -5.,           0.
      8,         52.5,          -5.,          20.
      9,         52.5,          70.,          20.
     10,        -22.5,          70.,          20.
     11,         -7.5,          -5.,           5.
     12,         -7.5,          -5.,          10.
     13,         -7.5,          -5.,          15.
     14,  -9.89398479,          -5.,   18.8848095
     15,  -11.9339752,          -5.,   17.2075348
     16,  -13.4909143,          -5.,   15.0742855
     17,  -14.4663038,          -5.,    12.620019
     18,  -14.7984381,          -5.,          10.
     19,  -14.4663038,          -5.,   7.37998104
     20,  -13.4909143,          -5.,   4.92571402
** ... 2422 like lines cut
*Element, type=C3D20R
 1,  113,  118,   15,   14,  416,  421,  137,  138,  678,  677,  676,  675,  679,  680,  681,
     682,  684,  683,  685,  686
 2,   16,  111,  117,   17,  136,  414,  420,  135,  690,  689,  688,  687,  691,  692,  693,
     694,  696,  695,  697,  698
 3,   15,  118,  111,   16,  137,  421,  414,  136,  677,  700,  690,  699,  680,  701,  691,
     702,  685,  683,  695,  696
 4,  111,  118,   12,  117,  414,  421,  167,  420,  700,  704,  703,  689,  701,  705,  706,
     692,  695,  683,  707,  697
 5,  117,   12,   11,  112,  420,  167,  168,  415,  703,  710,  709,  708,  706,  711,  712,
     713,  697,  707,  714,  715
 6,   11,    1,   22,  114,  168,   26,  130,  417,  719,  718,  717,  716,  720,  721,  722,
     723,  714,  724,  725,  726
 7,   14,    2,   13,  113,  138,   27,  166,  416,  729,  728,  727,  675,  730,  731,  732,
     682,  686,  733,  734,  684
 8,  113,   13,   12,  118,  416,  166,  167,  421,  727,  735,  704,  678,  732,  736,  705,
     679,  684,  734,  707,  683
 9,  114,  110,  112,   11,  417,  413,  415,  168,  738,  737,  709,  716,  739,  740,  712,
     723,  726,  741,  715,  714
10,   21,  110,  114,   22,  131,  413,  417,  130,  743,  738,  717,  742,  744,  739,  722,
     745,  746,  741,  726,  725
** ... 876 like lines cut
*Nset, nset=_PickedSet4, internal, generate
    1,  2442,     1
*Elset, elset=_PickedSet4, internal, generate
   1,  448,    1
*Elset, elset=_Alles_S5, internal
  1, 14, 16, 17, 30, 32, 33, 46, 48, 49, 62, 64, 65, 78, 80
*Elset, elset=_Alles_S6, internal
  2,  3, 10, 18, 19, 26, 34, 35, 42, 50, 51, 58, 66, 67, 74
*Elset, elset=_Alles_S4, internal, generate
  6,  70,  16
*Elset, elset=_Alles_S3, internal
  7, 11, 12, 23, 27, 28, 39, 43, 44, 55, 59, 60, 71, 75, 76
*Elset, elset=_Alles_S1, internal, generate
  81,  172,    1
*Elset, elset=_Alles_S2, internal, generate
 357,  448,    1
*Surface, type=ELEMENT, name=Alles
_Alles_S5, S5
_Alles_S6, S6
_Alles_S4, S4
_Alles_S2, S2
_Alles_S3, S3
_Alles_S1, S1
** Section: SchaumSection
*Solid Section, elset=_PickedSet4, material=Schaum
,
*End Part
**  
**
** ASSEMBLY
**
*Assembly, name=Assembly
**  
*Instance, name=Insert-1, part=Insert
*End Instance
**  
*Instance, name=Boden-1, part=Boden
         15.,          20.,          15.
         15.,          20.,          15., 14.422649720448, 19.422649720448, 14.422649720448, 119.999999109416
*End Instance
**  
*Instance, name=Hantel-1, part=Hantel
 -8.88178419700125e-15,         12.7,  3.28280786928032e-15
*End Instance
**  
*Instance, name=Schaum-1, part=Schaum
        22.5,         42.7,           5.
        22.5,         42.7,           5.,         23.5,         42.7,           5.,          90.
*End Instance
**  
*Instance, name=Deckel-1, part=Deckel
         15.,         42.7,          15.
         15.,         42.7,          15., 15.577350279552, 43.277350279552, 15.577350279552, 240.000000890584
*End Instance
**  
*Instance, name=Niederhalter-1, part=Niederhalter
       16.25,         45.4,         57.5
       16.25,         45.4,         57.5, 16.827350279552, 45.977350279552, 58.077350279552, 240.000000890584
*End Instance
**  
*Nset, nset=XSYMM, instance=Insert-1
   1,   2,   5,   8,   9,  10,  12,  13,  23,  34,  36,  37,  38,  40,  41,  42
  43,  44,  45,  46,  53,  54,  55,  56,  57,  62,  63,  80, 114, 115, 116, 117
 118, 119, 120, 121, 122, 123, 124, 125, 126, 127, 175, 176, 180, 181, 186, 187
 190, 247, 248, 249, 254, 255, 309, 312, 314, 315, 318, 319, 320, 323, 324, 347
 349, 350, 352, 354, 355, 377, 379, 380, 384, 386, 388, 389, 415, 417, 418, 422
 424, 426, 427, 453, 455, 456, 460, 462, 464, 465, 491, 493, 494, 498, 500, 502
 503, 529, 531, 532, 536, 538, 540, 541, 567, 569, 570, 574, 576, 578, 579
*Nset, nset=XSYMM, instance=Boden-1
   1,   2,   8,   9,  10,  11,  12,  13,  14,  15,  16,  17,  18,  19,  20,  21
  22,  23,  24,  25,  26,  27, 312, 313, 319, 320, 321, 322, 323, 324, 325, 326
 327, 328, 329, 330, 331, 332, 333, 334, 335, 336, 337, 338
*Nset, nset=XSYMM, instance=Hantel-1
   1,   2,   3,   4,   5,   6,   7,   8,   9,  10,  11,  67,  68,  69,  70,  71
  72,  73,  74,  75,  76,  77, 133, 134, 135, 136, 137, 138, 139, 140, 141, 142
 143, 199, 200, 201, 202, 203, 204, 205, 206, 207, 208, 209, 268, 269, 273, 274
 279, 280, 283, 287, 288, 291, 295, 296, 299, 303, 304, 307, 311, 312, 315, 319
 320, 323, 327, 328, 331, 335, 336, 339, 343, 344, 347, 564, 565, 566, 571, 572
 576, 577, 581, 582, 586, 587, 591, 592, 596, 597, 601, 602, 606, 607, 611, 612
 745, 746, 747, 752, 753, 757, 758, 762, 763, 767, 768, 772, 773, 777, 778, 782
 783, 787, 788, 792, 793
*Nset, nset=XSYMM, instance=Deckel-1
   1,   2,   8,   9,  10,  11,  12,  13,  14,  15,  16,  17,  18,  19,  20,  21
  22,  23,  24,  25,  26,  27, 312, 313, 319, 320, 321, 322, 323, 324, 325, 326
 327, 328, 329, 330, 331, 332, 333, 334, 335, 336, 337, 338
*Nset, nset=XSYMM, instance=Schaum-1
    3,    4,    5,   10,   31,   32,   33,   34,   35,   36,   37,   38,   39,   40,   41,   42
   43,   44,   45,   46,   47,   48,   49,   50,   51,   78,   79,   80,  101,  102,  103,  104
  105,  106,  107,  108,  109,  120,  121,  122,  123,  124,  125,  126,  127,  128,  129,  386
  387,  388,  389,  390,  391,  392,  393,  394,  395,  396,  397,  398,  399,  400,  401,  402
  403,  404,  405,  406,  407,  408,  409,  410,  411,  412,  966,  967,  968,  969,  974,  975
  976,  977,  982,  983,  984,  985,  987,  988,  989,  992,  993,  994,  995,  999, 1000, 1001
 1004, 1005, 1006, 1008, 1009, 1011, 1012, 1013, 1016, 1017, 1018, 1019, 1024, 1025, 1026, 1027
 1028, 1062, 1065, 1068, 1070, 1071, 1078, 1080, 1082, 1083, 1086, 1099, 1106, 1108, 1110, 1111
 1118, 1120, 1122, 1128, 1131, 1132, 1133, 1138, 1140, 1141, 1144, 1322, 1323, 1407, 1408, 1552
 1555, 1557, 1561, 1563, 1565, 1567, 1579, 1581, 1583, 1587, 1589, 1591, 1596, 1597, 1600, 1602
 1604, 1715, 1765, 1856, 1859, 1861, 1865, 1867, 1869, 1871, 1883, 1885, 1887, 1891, 1893, 1895
 1900, 1901, 1904, 1906, 1908, 2019, 2069, 2160, 2163, 2165, 2169, 2171, 2173, 2175, 2187, 2189
 2191, 2195, 2197, 2199, 2204, 2205, 2208, 2210, 2212, 2323, 2373
*Elset, elset=XSYMM, instance=Insert-1
  1,  2, 11, 12, 23, 25, 26, 32, 34, 35, 41, 43, 44, 50, 52, 53
 59, 61, 62, 68, 70, 71, 77, 79, 80, 86, 88, 89
*Elset, elset=XSYMM, instance=Boden-1
   2,   3,   6,   9,  11,  12,  13,  14,  15,  16,  17,  18,  19,  23,  26,  55
  61, 182, 187, 194, 203
*Elset, elset=XSYMM, instance=Hantel-1
   1,   2,   3,   4,   5,   6,   7,   8,   9,  10,  51,  52,  53,  54,  55,  56
  57,  58,  59,  60, 101, 102, 103, 104, 105, 106, 107, 108, 109, 110
*Elset, elset=XSYMM, instance=Deckel-1
   2,   3,   6,   9,  11,  12,  13,  14,  15,  16,  17,  18,  19,  23,  26,  55
  61, 182, 187, 194, 203
*Elset, elset=XSYMM, instance=Schaum-1
  65,  66,  67,  68,  69,  70,  71,  72,  73,  74,  75,  76,  77,  78,  79,  80
  84,  85,  86,  88,  89,  91,  92,  93, 117, 136, 176, 177, 178, 180, 181, 183
 184, 185, 209, 228, 268, 269, 270, 272, 273, 275, 276, 277, 301, 320, 360, 361
 362, 364, 365, 367, 368, 369, 393, 412
*Nset, nset=YSYMM, instance=Insert-1
   3,   4,   6,   7,   9,  10,  11,  18,  28,  33,  35,  39,  40,  41,  42,  43
  44,  45,  46,  47,  48,  49,  50,  51,  52,  81,  87,  88,  89,  90,  91,  92
  93, 232, 235, 237, 238, 239, 242, 243, 282, 284, 285, 286, 288, 306, 321, 322
 324, 331, 332, 344, 353, 355, 359, 374, 387, 389, 394, 396, 412, 425, 427, 432
 434, 450, 463, 465, 470, 472, 488, 501, 503, 508, 510, 526, 539, 541, 546, 548
 564, 577, 579, 584, 586
*Nset, nset=YSYMM, instance=Boden-1
   5,   6,  35,  36,  37,  38,  39,  40,  41,  42,  43,  44,  45,  46,  47,  48
  49,  50,  51,  52,  53,  54, 316, 317, 346, 347, 348, 349, 350, 351, 352, 353
 354, 355, 356, 357, 358, 359, 360, 361, 362, 363, 364, 365
*Nset, nset=YSYMM, instance=Hantel-1
  56,  57,  58,  59,  60,  61,  62,  63,  64,  65,  66, 122, 123, 124, 125, 126
 127, 128, 129, 130, 131, 132, 188, 189, 190, 191, 192, 193, 194, 195, 196, 197
 198, 254, 255, 256, 257, 258, 259, 260, 261, 262, 263, 264, 509, 512, 514, 515
 516, 519, 520, 521, 524, 525, 526, 529, 530, 531, 534, 535, 536, 539, 540, 541
 544, 545, 546, 549, 550, 551, 554, 555, 556, 559, 560, 711, 713, 714, 715, 717
 718, 720, 721, 723, 724, 726, 727, 729, 730, 732, 733, 735, 736, 738, 739, 741
 892, 894, 895, 896, 898, 899, 901, 902, 904, 905, 907, 908, 910, 911, 913, 914
 916, 917, 919, 920, 922
*Nset, nset=YSYMM, instance=Deckel-1
   5,   6,  35,  36,  37,  38,  39,  40,  41,  42,  43,  44,  45,  46,  47,  48
  49,  50,  51,  52,  53,  54, 316, 317, 346, 347, 348, 349, 350, 351, 352, 353
 354, 355, 356, 357, 358, 359, 360, 361, 362, 363, 364, 365
*Nset, nset=YSYMM, instance=Schaum-1
    1,    2,    7,    8,   11,   12,   13,   14,   15,   16,   17,   18,   19,   20,   21,   22
   64,   65,   66,   67,   68,   69,   70,   71,   72,   73,   74,   81,   82,   83,   84,   85
   86,   87,   88,  110,  111,  112,  113,  114,  115,  116,  117,  118,  119,  344,  345,  346
  347,  348,  349,  350,  351,  352,  353,  354,  355,  356,  357,  358,  359,  360,  361,  362
  363,  364,  365,  366,  367,  675,  676,  677,  678,  687,  688,  689,  690,  699,  700,  703
  704,  708,  709,  710,  716,  717,  718,  719,  727,  728,  729,  735,  737,  738,  742,  743
  747,  748,  749,  755,  756,  757,  758,  767,  768,  771,  773,  775, 1191, 1196, 1200, 1201
 1254, 1257, 1258, 1264, 1267, 1269, 1270, 1284, 1287, 1289, 1290, 1293, 1294, 1297, 1298, 1299
 1302, 1305, 1306, 1404, 1405, 1469, 1470, 1635, 1639, 1640, 1676, 1677, 1681, 1683, 1684, 1694
 1696, 1697, 1698, 1701, 1702, 1704, 1706, 1763, 1801, 1939, 1943, 1944, 1980, 1981, 1985, 1987
 1988, 1998, 2000, 2001, 2002, 2005, 2006, 2008, 2010, 2067, 2105, 2243, 2247, 2248, 2284, 2285
 2289, 2291, 2292, 2302, 2304, 2305, 2306, 2309, 2310, 2312, 2314, 2371, 2409
*Elset, elset=YSYMM, instance=Insert-1
  9, 10, 19, 20, 26, 28, 35, 37, 44, 46, 53, 55, 62, 64, 71, 73
 80, 82, 89, 91
*Elset, elset=YSYMM, instance=Boden-1
  30,  31,  35,  47,  54,  62,  76,  78,  80,  83,  85,  87,  89,  91,  92,  94
  97, 145, 183, 185, 189
*Elset, elset=YSYMM, instance=Hantel-1
  41,  42,  43,  44,  45,  46,  47,  48,  49,  50,  91,  92,  93,  94,  95,  96
  97,  98,  99, 100, 141, 142, 143, 144, 145, 146, 147, 148, 149, 150
*Elset, elset=YSYMM, instance=Deckel-1
  30,  31,  35,  47,  54,  62,  76,  78,  80,  83,  85,  87,  89,  91,  92,  94
  97, 145, 183, 185, 189
*Elset, elset=YSYMM, instance=Schaum-1
   1,   2,   3,   4,   5,   6,   7,   8,   9,  10,  11,  12,  13,  14,  15,  16
  99, 105, 107, 109, 110, 111, 113, 135, 152, 191, 197, 199, 201, 202, 203, 205
 227, 244, 283, 289, 291, 293, 294, 295, 297, 319, 336, 375, 381, 383, 385, 386
 387, 389, 411, 428
*Nset, nset=_PickedSet26, internal, instance=Niederhalter-1
  34,  35,  36,  37,  38,  39,  40,  41,  42,  43,  44,  45,  46,  47,  48,  49
  50,  51,  52,  53,  54,  55,  56,  57,  58,  59,  60,  61,  62,  63,  64,  65
  66,  71,  72,  73,  74,  83,  84,  85,  86,  95,  96,  97,  98, 107, 108, 109
 110, 119, 120, 121, 122, 130, 131, 132, 133, 140, 141, 142, 148, 149, 150, 155
 156, 157, 163, 164, 165, 170, 171, 174, 177, 178, 183, 184, 185, 189, 190, 194
 195, 196, 199, 201, 203, 205
*Elset, elset=_PickedSet26, internal, instance=Niederhalter-1, generate
  1,  21,   1
*Nset, nset=_PickedSet30, internal, instance=Insert-1
 589,
*Nset, nset=_PickedSet31, internal, instance=Insert-1
 589,
*Elset, elset=_CP-1-Boden-1_S5, internal, instance=Boden-1
  1,  6,  7, 27
*Elset, elset=_CP-1-Boden-1_S3, internal, instance=Boden-1
  4, 24, 25, 28
*Elset, elset=_CP-1-Boden-1_S6, internal, instance=Boden-1
 29, 30
*Surface, type=ELEMENT, name=CP-1-Boden-1
_CP-1-Boden-1_S5, S5
_CP-1-Boden-1_S3, S3
_CP-1-Boden-1_S6, S6
*Elset, elset=_CP-1-Insert-1_S3, internal, instance=Insert-1
 39, 42, 46, 48, 51, 55, 57, 60, 64, 66, 69, 73, 75, 78, 82, 84
 87, 91
*Elset, elset=_CP-1-Insert-1_S5, internal, instance=Insert-1
 43, 47, 52, 56, 61, 65, 70, 74, 79, 83, 88, 92
*Surface, type=ELEMENT, name=CP-1-Insert-1
_CP-1-Insert-1_S3, S3
_CP-1-Insert-1_S5, S5
*Elset, elset=_CP-2-Boden-1_S1, internal, instance=Boden-1, generate
   1,  275,    1
*Surface, type=ELEMENT, name=CP-2-Boden-1
_CP-2-Boden-1_S1, S1
*Elset, elset=_CP-2-Insert-1_S2, internal, instance=Insert-1, generate
  1,  10,   1
*Surface, type=ELEMENT, name=CP-2-Insert-1
_CP-2-Insert-1_S2, S2
*Elset, elset=_CP-3-Hantel-1_S2, internal, instance=Hantel-1, generate
  1,  50,   1
*Surface, type=ELEMENT, name=CP-3-Hantel-1
_CP-3-Hantel-1_S2, S2
*Elset, elset=_CP-3-Insert-1_S3, internal, instance=Insert-1
 39, 42, 46, 48, 51, 55, 57, 60, 64, 66, 69, 73, 75, 78, 82, 84
 87, 91
*Elset, elset=_CP-3-Insert-1_S5, internal, instance=Insert-1
 43, 47, 52, 56, 61, 65, 70, 74, 79, 83, 88, 92
*Surface, type=ELEMENT, name=CP-3-Insert-1
_CP-3-Insert-1_S3, S3
_CP-3-Insert-1_S5, S5
*Elset, elset=_CP-4-Deckel-1_S5, internal, instance=Deckel-1
  1,  6,  7, 27
*Elset, elset=_CP-4-Deckel-1_S3, internal, instance=Deckel-1
  4, 24, 25, 28
*Elset, elset=_CP-4-Deckel-1_S6, internal, instance=Deckel-1
 29, 30
*Surface, type=ELEMENT, name=CP-4-Deckel-1
_CP-4-Deckel-1_S5, S5
_CP-4-Deckel-1_S3, S3
_CP-4-Deckel-1_S6, S6
*Elset, elset=_CP-4-Insert-1_S3, internal, instance=Insert-1
 39, 42, 46, 48, 51, 55, 57, 60, 64, 66, 69, 73, 75, 78, 82, 84
 87, 91
*Elset, elset=_CP-4-Insert-1_S5, internal, instance=Insert-1
 43, 47, 52, 56, 61, 65, 70, 74, 79, 83, 88, 92
*Surface, type=ELEMENT, name=CP-4-Insert-1
_CP-4-Insert-1_S3, S3
_CP-4-Insert-1_S5, S5
*Elset, elset=_CP-5-Boden-1_S2, internal, instance=Boden-1, generate
   1,  275,    1
*Surface, type=ELEMENT, name=CP-5-Boden-1
_CP-5-Boden-1_S2, S2
*Elset, elset=_CP-5-Hantel-1_S6, internal, instance=Hantel-1, generate
   1,  141,   10
*Surface, type=ELEMENT, name=CP-5-Hantel-1
_CP-5-Hantel-1_S6, S6
*Elset, elset=_CP-6-Boden-1_S2, internal, instance=Boden-1, generate
   1,  275,    1
*Surface, type=ELEMENT, name=CP-6-Boden-1
_CP-6-Boden-1_S2, S2
*Elset, elset=_CP-6-Schaum-1_S5, internal, instance=Schaum-1
  1, 14, 16, 17, 30, 32, 33, 46, 48, 49, 62, 64, 65, 78, 80
*Elset, elset=_CP-6-Schaum-1_S6, internal, instance=Schaum-1
  2,  3, 10, 18, 19, 26, 34, 35, 42, 50, 51, 58, 66, 67, 74
*Elset, elset=_CP-6-Schaum-1_S4, internal, instance=Schaum-1, generate
  6,  70,  16
*Elset, elset=_CP-6-Schaum-1_S3, internal, instance=Schaum-1
  7, 11, 12, 23, 27, 28, 39, 43, 44, 55, 59, 60, 71, 75, 76
*Elset, elset=_CP-6-Schaum-1_S1, internal, instance=Schaum-1, generate
  81,  172,    1
*Elset, elset=_CP-6-Schaum-1_S2, internal, instance=Schaum-1, generate
 357,  448,    1
*Surface, type=ELEMENT, name=CP-6-Schaum-1
_CP-6-Schaum-1_S5, S5
_CP-6-Schaum-1_S6, S6
_CP-6-Schaum-1_S4, S4
_CP-6-Schaum-1_S2, S2
_CP-6-Schaum-1_S3, S3
_CP-6-Schaum-1_S1, S1
*Elset, elset=_CP-7-Hantel-1_S1, internal, instance=Hantel-1, generate
 101,  150,    1
*Surface, type=ELEMENT, name=CP-7-Hantel-1
_CP-7-Hantel-1_S1, S1
*Elset, elset=_CP-7-Schaum-1_S5, internal, instance=Schaum-1
  1, 14, 16, 17, 30, 32, 33, 46, 48, 49, 62, 64, 65, 78, 80
*Elset, elset=_CP-7-Schaum-1_S6, internal, instance=Schaum-1
  2,  3, 10, 18, 19, 26, 34, 35, 42, 50, 51, 58, 66, 67, 74
*Elset, elset=_CP-7-Schaum-1_S4, internal, instance=Schaum-1, generate
  6,  70,  16
*Elset, elset=_CP-7-Schaum-1_S3, internal, instance=Schaum-1
  7, 11, 12, 23, 27, 28, 39, 43, 44, 55, 59, 60, 71, 75, 76
*Elset, elset=_CP-7-Schaum-1_S1, internal, instance=Schaum-1, generate
  81,  172,    1
*Elset, elset=_CP-7-Schaum-1_S2, internal, instance=Schaum-1, generate
 357,  448,    1
*Surface, type=ELEMENT, name=CP-7-Schaum-1
_CP-7-Schaum-1_S5, S5
_CP-7-Schaum-1_S6, S6
_CP-7-Schaum-1_S4, S4
_CP-7-Schaum-1_S2, S2
_CP-7-Schaum-1_S3, S3
_CP-7-Schaum-1_S1, S1
*Elset, elset=_CP-8-Deckel-1_S1, internal, instance=Deckel-1, generate
   1,  275,    1
*Surface, type=ELEMENT, name=CP-8-Deckel-1
_CP-8-Deckel-1_S1, S1
*Elset, elset=_CP-8-Hantel-1_S4, internal, instance=Hantel-1, generate
  10,  150,   10
*Surface, type=ELEMENT, name=CP-8-Hantel-1
_CP-8-Hantel-1_S4, S4
*Elset, elset=_CP-9-Deckel-1_S1, internal, instance=Deckel-1, generate
   1,  275,    1
*Surface, type=ELEMENT, name=CP-9-Deckel-1
_CP-9-Deckel-1_S1, S1
*Elset, elset=_CP-9-Schaum-1_S5, internal, instance=Schaum-1
  1, 14, 16, 17, 30, 32, 33, 46, 48, 49, 62, 64, 65, 78, 80
*Elset, elset=_CP-9-Schaum-1_S6, internal, instance=Schaum-1
  2,  3, 10, 18, 19, 26, 34, 35, 42, 50, 51, 58, 66, 67, 74
*Elset, elset=_CP-9-Schaum-1_S4, internal, instance=Schaum-1, generate
  6,  70,  16
*Elset, elset=_CP-9-Schaum-1_S3, internal, instance=Schaum-1
  7, 11, 12, 23, 27, 28, 39, 43, 44, 55, 59, 60, 71, 75, 76
*Elset, elset=_CP-9-Schaum-1_S1, internal, instance=Schaum-1, generate
  81,  172,    1
*Elset, elset=_CP-9-Schaum-1_S2, internal, instance=Schaum-1, generate
 357,  448,    1
*Surface, type=ELEMENT, name=CP-9-Schaum-1
_CP-9-Schaum-1_S5, S5
_CP-9-Schaum-1_S6, S6
_CP-9-Schaum-1_S4, S4
_CP-9-Schaum-1_S2, S2
_CP-9-Schaum-1_S3, S3
_CP-9-Schaum-1_S1, S1
*Elset, elset=_CP-10-Deckel-1_S2, internal, instance=Deckel-1, generate
   1,  275,    1
*Surface, type=ELEMENT, name=CP-10-Deckel-1
_CP-10-Deckel-1_S2, S2
*Elset, elset=_CP-10-Niederhalter-1_S1, internal, instance=Niederhalter-1, generate
  1,  21,   1
*Surface, type=ELEMENT, name=CP-10-Niederhalter-1
_CP-10-Niederhalter-1_S1, S1
*Elset, elset=_Insertschaftklebeflaeche_S5, internal, instance=Boden-1
  1,  6,  7, 27
*Elset, elset=_Insertschaftklebeflaeche_S5, internal, instance=Deckel-1
  1,  6,  7, 27
*Elset, elset=_Insertschaftklebeflaeche_S3, internal, instance=Boden-1
  4, 24, 25, 28
*Elset, elset=_Insertschaftklebeflaeche_S3, internal, instance=Deckel-1
  4, 24, 25, 28
*Elset, elset=_Insertschaftklebeflaeche_S6, internal, instance=Boden-1
 29, 30
*Elset, elset=_Insertschaftklebeflaeche_S6, internal, instance=Deckel-1
 29, 30
*Elset, elset=_Insertschaftklebeflaeche_S2, internal, instance=Hantel-1, generate
  1,  50,   1
*Surface, type=ELEMENT, name=Insertschaftklebeflaeche
_Insertschaftklebeflaeche_S5, S5
_Insertschaftklebeflaeche_S3, S3
_Insertschaftklebeflaeche_S6, S6
_Insertschaftklebeflaeche_S2, S2
*Elset, elset=__PickedSurf24_S2, internal, instance=Insert-1, generate
 84,  92,   1
*Surface, type=ELEMENT, name=_PickedSurf24, internal
__PickedSurf24_S2, S2
** Constraint: CP-1-Insert-1-Boden-1
*Tie, name=CP-1-Insert-1-Boden-1, adjust=yes, type=SURFACE TO SURFACE
CP-1-Boden-1, CP-1-Insert-1
** Constraint: CP-3-Insert-1-Hantel-1
*Tie, name=CP-3-Insert-1-Hantel-1, adjust=yes, type=SURFACE TO SURFACE
CP-3-Hantel-1, CP-3-Insert-1
** Constraint: CP-4-Insert-1-Deckel-1
*Tie, name=CP-4-Insert-1-Deckel-1, adjust=yes, type=SURFACE TO SURFACE
CP-4-Deckel-1, CP-4-Insert-1
** Constraint: CP-5-Boden-1-Hantel-1
*Tie, name=CP-5-Boden-1-Hantel-1, adjust=yes, type=SURFACE TO SURFACE
CP-5-Hantel-1, CP-5-Boden-1
** Constraint: CP-8-Deckel-1-Hantel-1
*Tie, name=CP-8-Deckel-1-Hantel-1, adjust=yes, type=SURFACE TO SURFACE
CP-8-Hantel-1, CP-8-Deckel-1
** Constraint: Coupling_Referenzpunkt
*Coupling, constraint name=Coupling_Referenzpunkt, ref node=_PickedSet30, surface=_PickedSurf24
*Kinematic
** Constraint: TIE_Hantel_Boden
*Tie, name=TIE_Hantel_Boden, adjust=yes
Boden-1.Oben, Hantel-1.Alles
** Constraint: TIE_Hantel_Deckel
*Tie, name=TIE_Hantel_Deckel, adjust=yes
Deckel-1.Unten, Hantel-1.Alles
** Constraint: TIE_Insertschaft
*Tie, name=TIE_Insertschaft, adjust=yes
Insertschaftklebeflaeche, Insert-1.Stiel
*Elset, elset=__CP-6-Schaum-1-Boden-1_msm_1_S5, internal, instance=Schaum-1
  1, 14, 16, 17, 30, 32, 33, 46, 48, 49, 62, 64, 65, 78, 80
*Elset, elset=__CP-6-Schaum-1-Boden-1_msm_1_S6, internal, instance=Schaum-1
  2,  3, 10, 18, 19, 26, 34, 35, 42, 50, 51, 58, 66, 67, 74
*Elset, elset=__CP-6-Schaum-1-Boden-1_msm_1_S4, internal, instance=Schaum-1, generate
  6,  70,  16
*Elset, elset=__CP-6-Schaum-1-Boden-1_msm_1_S3, internal, instance=Schaum-1
  7, 11, 12, 23, 27, 28, 39, 43, 44, 55, 59, 60, 71, 75, 76
*Surface, type=ELEMENT, name=_CP-6-Schaum-1-Boden-1_msm_1, internal
__CP-6-Schaum-1-Boden-1_msm_1_S5, S5
__CP-6-Schaum-1-Boden-1_msm_1_S6, S6
__CP-6-Schaum-1-Boden-1_msm_1_S4, S4
__CP-6-Schaum-1-Boden-1_msm_1_S3, S3
*Elset, elset=__CP-7-Schaum-1-Hantel-1_msm_1_S5, internal, instance=Schaum-1
  1, 14, 16, 17, 30, 32, 33, 46, 48, 49, 62, 64, 65, 78, 80
*Elset, elset=__CP-7-Schaum-1-Hantel-1_msm_1_S6, internal, instance=Schaum-1
  2,  3, 10, 18, 19, 26, 34, 35, 42, 50, 51, 58, 66, 67, 74
*Elset, elset=__CP-7-Schaum-1-Hantel-1_msm_1_S4, internal, instance=Schaum-1, generate
  6,  70,  16
*Elset, elset=__CP-7-Schaum-1-Hantel-1_msm_1_S3, internal, instance=Schaum-1
  7, 11, 12, 23, 27, 28, 39, 43, 44, 55, 59, 60, 71, 75, 76
*Surface, type=ELEMENT, name=_CP-7-Schaum-1-Hantel-1_msm_1, internal
__CP-7-Schaum-1-Hantel-1_msm_1_S5, S5
__CP-7-Schaum-1-Hantel-1_msm_1_S6, S6
__CP-7-Schaum-1-Hantel-1_msm_1_S4, S4
__CP-7-Schaum-1-Hantel-1_msm_1_S3, S3
*Elset, elset=__CP-7-Schaum-1-Hantel-1_ssm_1_S1, internal, instance=Hantel-1, generate
 101,  150,    1
*Surface, type=ELEMENT, name=_CP-7-Schaum-1-Hantel-1_ssm_1, internal
__CP-7-Schaum-1-Hantel-1_ssm_1_S1, S1
*Elset, elset=__CP-9-Schaum-1-Deckel-1_msm_1_S5, internal, instance=Schaum-1
  1, 14, 16, 17, 30, 32, 33, 46, 48, 49, 62, 64, 65, 78, 80
*Elset, elset=__CP-9-Schaum-1-Deckel-1_msm_1_S6, internal, instance=Schaum-1
  2,  3, 10, 18, 19, 26, 34, 35, 42, 50, 51, 58, 66, 67, 74
*Elset, elset=__CP-9-Schaum-1-Deckel-1_msm_1_S4, internal, instance=Schaum-1, generate
  6,  70,  16
*Elset, elset=__CP-9-Schaum-1-Deckel-1_msm_1_S3, internal, instance=Schaum-1
  7, 11, 12, 23, 27, 28, 39, 43, 44, 55, 59, 60, 71, 75, 76
*Surface, type=ELEMENT, name=_CP-9-Schaum-1-Deckel-1_msm_1, internal
__CP-9-Schaum-1-Deckel-1_msm_1_S5, S5
__CP-9-Schaum-1-Deckel-1_msm_1_S6, S6
__CP-9-Schaum-1-Deckel-1_msm_1_S4, S4
__CP-9-Schaum-1-Deckel-1_msm_1_S3, S3
*End Assembly
*Amplitude, name=Smooth, definition=SMOOTH STEP
             0.,              0.,              4.,             40.
** 
** MATERIALS
** 
*Material, name=CFK
*Density
 1e-09,
*Elastic, type=LAMINA
120000.,8500., 0.35,4200.,4200.,2500.
*Material, name=Harz
*Elastic
2800., 0.3
*Material, name=Schaum
*Elastic
80., 0.35
*Material, name=Stahl
*Elastic
210000., 0.3
** 
** INTERACTION PROPERTIES
** 
*Surface Interaction, name=Gleitkontakt
1.,
*Friction, slip tolerance=0.005
 0.1,
*Surface Behavior, pressure-overclosure=HARD
*Surface Interaction, name=Klebeverbindung_Schaum
1.,
*Friction, slip tolerance=0.005
 0.3,
*Surface Behavior, pressure-overclosure=HARD
*Cohesive Behavior
500.,500.,500.
*Surface Interaction, name=Klebeverbindung_Stahl
1.,
*Surface Behavior, pressure-overclosure=HARD
*Cohesive Behavior
500.,500.,500.
*Damage Initiation, criterion=MAXS
1.,1.,1.
*Damage Evolution, type=ENERGY, softening=EXPONENTIAL, mixed mode behavior=BK, power=1.75
 0.03, 0.03, 0.03
*Damage Stabilization
1e-05
*Surface Smoothing, name=CP-6-Schaum-1-Boden-1
, _CP-6-Schaum-1-Boden-1_msm_1, TOROIDAL, 3.55271e-15, 32.7, 1.86517e-14, 3.55271e-15, 31.7, 1.8713e-14, 18.2016
*Surface Smoothing, name=CP-7-Schaum-1-Hantel-1
, _CP-7-Schaum-1-Hantel-1_msm_1, TOROIDAL, 3.55271e-15, 32.7, 1.86517e-14, 3.55271e-15, 31.7, 1.8713e-14, 18.2016
_CP-7-Schaum-1-Hantel-1_ssm_1, , TOROIDAL, -8.88178e-15, 32.7, 3.28281e-15, -8.88178e-15, 31.7, 3.28281e-15, 18.2016
*Surface Smoothing, name=CP-9-Schaum-1-Deckel-1
, _CP-9-Schaum-1-Deckel-1_msm_1, TOROIDAL, 3.55271e-15, 32.7, 1.86517e-14, 3.55271e-15, 31.7, 1.8713e-14, 18.2016
** 
** BOUNDARY CONDITIONS
** 
** Name: FIX Type: Symmetry/Antisymmetry/Encastre
*Boundary
_PickedSet26, ENCASTRE
** Name: XSYMM Type: Symmetry/Antisymmetry/Encastre
*Boundary
XSYMM, XSYMM
** Name: ZSYMM Type: Symmetry/Antisymmetry/Encastre
*Boundary
YSYMM, ZSYMM
** 
** INTERACTIONS
** 
** Interaction: CP-2-Boden-1-Insert-1
*Contact Pair, interaction=Klebeverbindung_Schaum, small sliding, type=SURFACE TO SURFACE
CP-2-Insert-1, CP-2-Boden-1
** Interaction: CP-6-Schaum-1-Boden-1
*Contact Pair, interaction=Klebeverbindung_Schaum, small sliding, type=SURFACE TO SURFACE, 
geometric correction=CP-6-Schaum-1-Boden-1
CP-6-Boden-1, CP-6-Schaum-1
** Interaction: CP-7-Schaum-1-Hantel-1
*Contact Pair, interaction=Klebeverbindung_Schaum, small sliding, type=SURFACE TO SURFACE, 
geometric correction=CP-7-Schaum-1-Hantel-1
CP-7-Hantel-1, CP-7-Schaum-1
** Interaction: CP-9-Schaum-1-Deckel-1
*Contact Pair, interaction=Klebeverbindung_Schaum, small sliding, type=SURFACE TO SURFACE, 
geometric correction=CP-9-Schaum-1-Deckel-1
CP-9-Deckel-1, CP-9-Schaum-1
** Interaction: CP-10-Niederhalter-1-Deckel-1
*Contact Pair, interaction=Gleitkontakt, type=SURFACE TO SURFACE
CP-10-Deckel-1, CP-10-Niederhalter-1
** ----------------------------------------------------------------
** 
** STEP: Belastung
** 
*Step, name=Belastung, nlgeom=YES
*Static
1., 1., 1e-05, 1.
** 
** BOUNDARY CONDITIONS
** 
** Name: Verschiebung Type: Displacement/Rotation
*Boundary
_PickedSet31, 2, 2, 5.
** 
** OUTPUT REQUESTS
** 
*Restart, write, number interval=1, time marks=NO
** 
** FIELD OUTPUT: Alles
** 
*Output, field, number interval=400, time marks=NO
*Node Output
U, 
*Element Output, directions=YES
E, PE, PEEQ, S, SDEG, STATUS
*Contact Output
CSDMG, CSTRESS
** 
** FIELD OUTPUT: Boden
** 
*Element Output, elset=Boden-1.Deckschicht-1, directions=YES
2, 5, 8, 11, 14, 17, 20, 23
DAMAGEFC, DAMAGEFT, DAMAGEMC, DAMAGEMT, DAMAGESHR, S
** 
** FIELD OUTPUT: Deckel
** 
*Element Output, elset=Deckel-1.Deckschicht-1, directions=YES
2, 5, 8, 11, 14, 17, 20, 23
DAMAGEFC, DAMAGEFT, DAMAGEMC, DAMAGEMT, DAMAGESHR, S
** 
** HISTORY OUTPUT: Alles
** 
*Output, history, number interval=400, time marks=NO
*Energy Output
ALLAE, ALLIE, ALLKE, ETOTAL
** 
** HISTORY OUTPUT: Referenzpunkt
** 
*Node Output, nset=Insert-1.Referenzpunkt
RF2, U2
*End Step
